444290
  -OEChem-11051309253D

 74 78  0     1  0  0  0  0  0999 V2000
   -0.6092    1.2509   -3.6555 O   0  0  0  0  0  0  0  0  0  0  0  0
    0.5423   -1.2703   -3.6702 O   0  0  0  0  0  0  0  0  0  0  0  0
   -2.5829    1.8357    0.0224 O   0  0  0  0  0  0  0  0  0  0  0  0
    2.5860   -1.8327    0.0210 O   0  0  0  0  0  0  0  0  0  0  0  0
   -0.0016    0.0037    1.9734 O   0  0  0  0  0  0  0  0  0  0  0  0
    0.0938    1.1943    0.0031 N   0  0  0  0  0  0  0  0  0  0  0  0
   -0.0900   -1.1945    0.0073 N   0  0  0  0  0  0  0  0  0  0  0  0
   -0.6134    1.4334   -1.2686 C   0  0  1  0  0  0  0  0  0  0  0  0
    0.6137   -1.4344   -1.2669 C   0  0  1  0  0  0  0  0  0  0  0  0
    0.0406    0.7586   -2.4767 C   0  0  1  0  0  0  0  0  0  0  0  0
   -0.0549   -0.7630   -2.4699 C   0  0  1  0  0  0  0  0  0  0  0  0
    0.0002    0.0013    0.7352 C   0  0  0  0  0  0  0  0  0  0  0  0
   -2.1198    1.1658   -1.1318 C   0  0  0  0  0  0  0  0  0  0  0  0
    2.1189   -1.1613   -1.1309 C   0  0  0  0  0  0  0  0  0  0  0  0
    0.5772    2.3855    0.6922 C   0  0  0  0  0  0  0  0  0  0  0  0
   -0.5697   -2.3853    0.6998 C   0  0  0  0  0  0  0  0  0  0  0  0
    2.0638    2.5478    0.5581 C   0  0  0  0  0  0  0  0  0  0  0  0
   -2.0557   -2.5527    0.5661 C   0  0  0  0  0  0  0  0  0  0  0  0
    2.5930    3.2711   -0.5108 C   0  0  0  0  0  0  0  0  0  0  0  0
   -2.5827   -3.2806   -0.5008 C   0  0  0  0  0  0  0  0  0  0  0  0
    2.9159    1.9748    1.5024 C   0  0  0  0  0  0  0  0  0  0  0  0
   -2.9096   -1.9797    1.5087 C   0  0  0  0  0  0  0  0  0  0  0  0
   -3.9165    1.7069    0.3294 C   0  0  0  0  0  0  0  0  0  0  0  0
    3.9195   -1.6995    0.3266 C   0  0  0  0  0  0  0  0  0  0  0  0
    3.9742    3.4214   -0.6353 C   0  0  0  0  0  0  0  0  0  0  0  0
   -3.9633   -3.4357   -0.6249 C   0  0  0  0  0  0  0  0  0  0  0  0
    4.2970    2.1253    1.3779 C   0  0  0  0  0  0  0  0  0  0  0  0
   -4.2903   -2.1349    1.3846 C   0  0  0  0  0  0  0  0  0  0  0  0
   -4.4375    2.3437    1.4559 C   0  0  0  0  0  0  0  0  0  0  0  0
    4.4444   -2.3375    1.4506 C   0  0  0  0  0  0  0  0  0  0  0  0
   -4.7491    0.9397   -0.4856 C   0  0  0  0  0  0  0  0  0  0  0  0
    4.7481   -0.9270   -0.4873 C   0  0  0  0  0  0  0  0  0  0  0  0
    4.8261    2.8485    0.3091 C   0  0  0  0  0  0  0  0  0  0  0  0
   -4.8171   -2.8627    0.3179 C   0  0  0  0  0  0  0  0  0  0  0  0
   -5.7911    2.2135    1.7670 C   0  0  0  0  0  0  0  0  0  0  0  0
    5.7978   -2.2030    1.7605 C   0  0  0  0  0  0  0  0  0  0  0  0
   -6.1026    0.8097   -0.1745 C   0  0  0  0  0  0  0  0  0  0  0  0
    6.1014   -0.7927   -0.1775 C   0  0  0  0  0  0  0  0  0  0  0  0
   -6.6235    1.4465    0.9518 C   0  0  0  0  0  0  0  0  0  0  0  0
    6.6263   -1.4305    0.9463 C   0  0  0  0  0  0  0  0  0  0  0  0
   -0.5390    2.5123   -1.4653 H   0  0  0  0  0  0  0  0  0  0  0  0
    0.5424   -2.5138   -1.4615 H   0  0  0  0  0  0  0  0  0  0  0  0
    1.0892    1.0648   -2.5660 H   0  0  0  0  0  0  0  0  0  0  0  0
   -1.1076   -1.0633   -2.5270 H   0  0  0  0  0  0  0  0  0  0  0  0
   -2.2962    0.0907   -1.0317 H   0  0  0  0  0  0  0  0  0  0  0  0
   -2.6275    1.5458   -2.0270 H   0  0  0  0  0  0  0  0  0  0  0  0
    2.2909   -0.0855   -1.0309 H   0  0  0  0  0  0  0  0  0  0  0  0
    2.6245   -1.5375   -2.0290 H   0  0  0  0  0  0  0  0  0  0  0  0
    0.0596    3.2836    0.3338 H   0  0  0  0  0  0  0  0  0  0  0  0
    0.3204    2.3290    1.7575 H   0  0  0  0  0  0  0  0  0  0  0  0
   -0.0490   -3.2825    0.3436 H   0  0  0  0  0  0  0  0  0  0  0  0
   -0.3131   -2.3248    1.7649 H   0  0  0  0  0  0  0  0  0  0  0  0
   -0.4702    2.2128   -3.6888 H   0  0  0  0  0  0  0  0  0  0  0  0
    0.4073   -2.2332   -3.6824 H   0  0  0  0  0  0  0  0  0  0  0  0
    1.9397    3.7200   -1.2542 H   0  0  0  0  0  0  0  0  0  0  0  0
   -1.9279   -3.7297   -1.2428 H   0  0  0  0  0  0  0  0  0  0  0  0
    2.5185    1.4075    2.3395 H   0  0  0  0  0  0  0  0  0  0  0  0
   -2.5140   -1.4089    2.3443 H   0  0  0  0  0  0  0  0  0  0  0  0
    4.3864    3.9832   -1.4683 H   0  0  0  0  0  0  0  0  0  0  0  0
   -4.3738   -4.0011   -1.4563 H   0  0  0  0  0  0  0  0  0  0  0  0
    4.9603    1.6784    2.1126 H   0  0  0  0  0  0  0  0  0  0  0  0
   -4.9549   -1.6878    2.1180 H   0  0  0  0  0  0  0  0  0  0  0  0
   -3.7933    2.9418    2.0945 H   0  0  0  0  0  0  0  0  0  0  0  0
    3.8033   -2.9399    2.0884 H   0  0  0  0  0  0  0  0  0  0  0  0
   -4.4127    0.4191   -1.3755 H   0  0  0  0  0  0  0  0  0  0  0  0
    4.4085   -0.4054   -1.3755 H   0  0  0  0  0  0  0  0  0  0  0  0
    5.9016    2.9641    0.2113 H   0  0  0  0  0  0  0  0  0  0  0  0
   -5.8921   -2.9820    0.2204 H   0  0  0  0  0  0  0  0  0  0  0  0
   -6.1967    2.7089    2.6442 H   0  0  0  0  0  0  0  0  0  0  0  0
    6.2064   -2.6992    2.6359 H   0  0  0  0  0  0  0  0  0  0  0  0
   -6.7515    0.2118   -0.8080 H   0  0  0  0  0  0  0  0  0  0  0  0
    6.7472   -0.1906   -0.8102 H   0  0  0  0  0  0  0  0  0  0  0  0
   -7.6772    1.3445    1.1944 H   0  0  0  0  0  0  0  0  0  0  0  0
    7.6798   -1.3251    1.1880 H   0  0  0  0  0  0  0  0  0  0  0  0
  1 10  1  0  0  0  0
  1 53  1  0  0  0  0
  2 11  1  0  0  0  0
  2 54  1  0  0  0  0
  3 13  1  0  0  0  0
  3 23  1  0  0  0  0
  4 14  1  0  0  0  0
  4 24  1  0  0  0  0
  5 12  2  0  0  0  0
  6  8  1  0  0  0  0
  6 12  1  0  0  0  0
  6 15  1  0  0  0  0
  7  9  1  0  0  0  0
  7 12  1  0  0  0  0
  7 16  1  0  0  0  0
  8 10  1  0  0  0  0
  8 13  1  0  0  0  0
  8 41  1  0  0  0  0
  9 11  1  0  0  0  0
  9 14  1  0  0  0  0
  9 42  1  0  0  0  0
 10 11  1  0  0  0  0
 10 43  1  0  0  0  0
 11 44  1  0  0  0  0
 13 45  1  0  0  0  0
 13 46  1  0  0  0  0
 14 47  1  0  0  0  0
 14 48  1  0  0  0  0
 15 17  1  0  0  0  0
 15 49  1  0  0  0  0
 15 50  1  0  0  0  0
 16 18  1  0  0  0  0
 16 51  1  0  0  0  0
 16 52  1  0  0  0  0
 17 19  2  0  0  0  0
 17 21  1  0  0  0  0
 18 20  2  0  0  0  0
 18 22  1  0  0  0  0
 19 25  1  0  0  0  0
 19 55  1  0  0  0  0
 20 26  1  0  0  0  0
 20 56  1  0  0  0  0
 21 27  2  0  0  0  0
 21 57  1  0  0  0  0
 22 28  2  0  0  0  0
 22 58  1  0  0  0  0
 23 29  2  0  0  0  0
 23 31  1  0  0  0  0
 24 30  2  0  0  0  0
 24 32  1  0  0  0  0
 25 33  2  0  0  0  0
 25 59  1  0  0  0  0
 26 34  2  0  0  0  0
 26 60  1  0  0  0  0
 27 33  1  0  0  0  0
 27 61  1  0  0  0  0
 28 34  1  0  0  0  0
 28 62  1  0  0  0  0
 29 35  1  0  0  0  0
 29 63  1  0  0  0  0
 30 36  1  0  0  0  0
 30 64  1  0  0  0  0
 31 37  2  0  0  0  0
 31 65  1  0  0  0  0
 32 38  2  0  0  0  0
 32 66  1  0  0  0  0
 33 67  1  0  0  0  0
 34 68  1  0  0  0  0
 35 39  2  0  0  0  0
 35 69  1  0  0  0  0
 36 40  2  0  0  0  0
 36 70  1  0  0  0  0
 37 39  1  0  0  0  0
 37 71  1  0  0  0  0
 38 40  1  0  0  0  0
 38 72  1  0  0  0  0
 39 73  1  0  0  0  0
 40 74  1  0  0  0  0
M  END
> <PUBCHEM_COMPOUND_CID>
444290

> <PUBCHEM_CONFORMER_RMSD>
1.2

> <PUBCHEM_CONFORMER_DIVERSEORDER>
1
30
18
22
12
17
45
33
13
60
10
54
29
34
39
86
92
88
58
87
82
74
32
40
47
67
72
73
36
90
44
19
25
69
16
50
49
62
89
46
4
65
5
35
38
80
83
81
64
79
75
85
43
28
24
61
20
27
78
6
55
42
84
70
68
41
63
59
3
53
51
76
31
77
71
66
8
14
52
48
23
91
9
37
26
15
56
7
11
57
2
21

> <PUBCHEM_MMFF94_PARTIAL_CHARGES>
62
1 -0.68
10 0.28
11 0.28
12 0.69
13 0.28
14 0.28
15 0.44
16 0.44
17 -0.14
18 -0.14
19 -0.15
2 -0.68
20 -0.15
21 -0.15
22 -0.15
23 0.08
24 0.08
25 -0.15
26 -0.15
27 -0.15
28 -0.15
29 -0.15
3 -0.36
30 -0.15
31 -0.15
32 -0.15
33 -0.15
34 -0.15
35 -0.15
36 -0.15
37 -0.15
38 -0.15
39 -0.15
4 -0.36
40 -0.15
5 -0.57
53 0.4
54 0.4
55 0.15
56 0.15
57 0.15
58 0.15
59 0.15
6 -0.66
60 0.15
61 0.15
62 0.15
63 0.15
64 0.15
65 0.15
66 0.15
67 0.15
68 0.15
69 0.15
7 -0.66
70 0.15
71 0.15
72 0.15
73 0.15
74 0.15
8 0.3
9 0.3

> <PUBCHEM_EFFECTIVE_ROTOR_COUNT>
11.2

> <PUBCHEM_PHARMACOPHORE_FEATURES>
12
1 1 acceptor
1 1 donor
1 2 acceptor
1 2 donor
1 3 acceptor
1 4 acceptor
1 5 acceptor
6 17 19 21 25 27 33 rings
6 18 20 22 26 28 34 rings
6 23 29 31 35 37 39 rings
6 24 30 32 36 38 40 rings
7 6 7 8 9 10 11 12 rings

> <PUBCHEM_HEAVY_ATOM_COUNT>
40

> <PUBCHEM_ATOM_DEF_STEREO_COUNT>
4

> <PUBCHEM_ATOM_UDEF_STEREO_COUNT>
0

> <PUBCHEM_BOND_DEF_STEREO_COUNT>
0

> <PUBCHEM_BOND_UDEF_STEREO_COUNT>
0

> <PUBCHEM_ISOTOPIC_ATOM_COUNT>
0

> <PUBCHEM_COMPONENT_COUNT>
1

> <PUBCHEM_CACTVS_TAUTO_COUNT>
1

> <PUBCHEM_CONFORMER_ID>
0006C78200000001

> <PUBCHEM_MMFF94_ENERGY>
136.577

> <PUBCHEM_FEATURE_SELFOVERLAP>
60.909

> <PUBCHEM_SHAPE_FINGERPRINT>
10675989 125 16389011576159551757
10764073 3 18410575050308622391
1100329 8 18410575054598308217
11578080 2 18198366081112932105
12058002 1 17344371972034308913
12422481 6 18410574036691058705
12597179 24 18201446908536292773
12633257 1 18410855417178488904
13782708 43 17313945187175653816
14020679 6 18410013191319468810
14955137 171 17917712349599620572
15064986 96 17988651800504705868
15361156 5 17968386722804525536
15406563 42 17898579923879584988
15444296 121 18269845220223159960
15968369 153 17774992514709785504
16090146 7 16843003526049638421
16112460 7 18410297999686550177
19301679 30 18119254115013800251
20691752 17 17313097588111709024
20764821 26 18341060683159710873
22223350 30 17822871852105209371
3178227 256 18263656069518316281
3493558 16 18272094872252497665
392239 28 18338518534645219041
460360 51 18261105322225732209
6086070 43 17417530336041353281

> <PUBCHEM_SHAPE_MULTIPOLES>
783.87
14.22
4.63
2.3
0.07
0.03
2.02
-0.05
-7.09
-0.05
-0.86
-0.02
0
-1.29

> <PUBCHEM_SHAPE_SELFOVERLAP>
1691.601

> <PUBCHEM_SHAPE_VOLUME>
425.3

> <PUBCHEM_COORDINATE_TYPE>
2
5
10

$$$$
